<?xml version="1.0" encoding="UTF-8"?>

<!-- generated on 2026-04-08T15:27:50.617249+01:00 by Eclipse SUMO sumo v1_26_0+1007-b942728ab9d
-->

<sumoConfiguration xmlns:xsi="http://www.w3.org/2001/XMLSchema-instance" xsi:noNamespaceSchemaLocation="http://sumo.dlr.de/xsd/sumoConfiguration.xsd">

    <input>
        <net-file value="Doerpfeldstr_edit.net.xml.gz"/>
        <route-files value="cars.rou.xml,bikes.rou.xml,peds.rou.xml"/>
    </input>

</sumoConfiguration>
