<?xml version="1.0" encoding="UTF-8"?>

<!-- generated on 2023-05-08 11:57:37 by Eclipse SUMO sumo Version v1_17_0+0149-e2883309071
-->

<configuration xmlns:xsi="http://www.w3.org/2001/XMLSchema-instance" xsi:noNamespaceSchemaLocation="http://sumo.dlr.de/xsd/sumoConfiguration.xsd">

    <input>
        <net-file value="berlin-sbahn.net.xml.gz"/>
        <additional-files value="vtypes.xml,sbahn_stops.add.xml.gz,sbahn_vehicles.add.xml.gz"/>
    </input>

</configuration>
